OPT_V9/My_campus_w_initial_sub_3_active_28_03_16_10/powerflow_results_t2.txt
Pandapower Network Debug Info
==================================================

BUS:
       vm_pu  va_degree      p_mw    q_mvar
0   1.003628  -0.053961 -0.003562 -0.004474
1   1.004251  -0.026239 -0.000372  0.000000
2   1.004868   0.001216 -0.000686  0.000000
3   1.003489  -0.097476  0.000686 -0.000611
4   0.995882  -0.247033  0.003375  0.000197
5   0.999567  -0.089647  0.002256 -0.001059
6   1.000487  -0.048533 -0.001057  0.000000
7   1.000594  -0.089575  0.000432 -0.001953
8   1.000198  -0.076647 -0.000895 -0.005942
9   0.999903  -0.000083  0.010001  0.008185
10  0.999888  -0.000097  0.013174  0.010200
11  0.999877  -0.000114  0.013858  0.010194
12  0.999855  -0.001026  0.008345  0.005243
13  0.999836  -0.000821  0.012270  0.010775
14  0.999826  -0.000695  0.011005  0.013092
15  0.999949  -0.000070  0.000000  0.000000
16  0.999949  -0.000073  0.000000  0.000000
17  0.999859  -0.001001  0.000000  0.000000
18  0.999859  -0.001005  0.000000  0.000000
19  1.000000   0.000000 -0.033143 -0.028512
20  1.000000   0.000004  0.000000  0.000000
21  1.000000   0.000000 -0.035782 -0.025379
22  1.000000   0.000003  0.000000  0.000000
--------------------------------------------------

LINE:
    p_from_mw   q_from_mvar   p_to_mw     q_to_mvar         pl_mw       ql_mvar  i_from_ka   i_to_ka      i_ka  vm_from_pu  va_from_degree  vm_to_pu  va_to_degree  loading_percent
0    0.033133  2.451241e-02 -0.033132 -2.451112e-02  1.661541e-06  1.295531e-06   0.001586  0.001586  0.001586    1.000000        0.000004  0.999949     -0.000070         0.689726
1    0.035772  2.137862e-02 -0.035767 -2.137498e-02  4.671401e-06  3.642368e-06   0.001604  0.001604  0.001604    1.000000        0.000003  0.999859     -0.001001         0.697394
2    0.037035  2.858036e-02 -0.037033 -2.857904e-02  1.692437e-06  1.319621e-06   0.001801  0.001801  0.001801    0.999949       -0.000070  0.999903     -0.000083         0.782902
3    0.008345  5.243250e-03 -0.008345 -5.243223e-03  3.360099e-08  2.619924e-08   0.000379  0.000379  0.000379    0.999859       -0.001001  0.999855     -0.001026         0.164957
4    0.023275  2.386759e-02 -0.023275 -2.386712e-02  6.078764e-07  4.739713e-07   0.001283  0.001283  0.001283    0.999859       -0.001001  0.999836     -0.000821         0.557977
5   -0.003913 -5.069091e-03  0.003932  5.084048e-03  1.918198e-05  1.495650e-05   0.009243  0.009243  0.009243    0.999949       -0.000073  1.003628     -0.053961         4.018880
6    0.001201 -1.056264e-03 -0.001199  1.057812e-03  1.985880e-06  1.548423e-06   0.002309  0.002309  0.002309    0.999859       -0.001005  0.999567     -0.089647         1.004034
7    0.000434 -1.950491e-03 -0.000432  1.952595e-03  2.698466e-06  2.104039e-06   0.002885  0.002885  0.002885    0.999859       -0.001005  1.000594     -0.089575         1.254189
8    0.002501 -5.728770e-03 -0.002494  5.734010e-03  6.720123e-06  5.239791e-06   0.009024  0.009024  0.009024    0.999859       -0.001005  1.000198     -0.076647         3.923330
9   -0.027032 -2.039396e-02  0.027032  2.039427e-02  3.966233e-07  3.092537e-07   0.001303  0.001303  0.001303    0.999888       -0.000097  0.999903     -0.000083         0.566739
10  -0.013858 -1.019387e-02  0.013858  1.019398e-02  1.447781e-07  1.128859e-07   0.000662  0.000662  0.000662    0.999877       -0.000114  0.999888     -0.000097         0.287931
11  -0.011005 -1.309160e-02  0.011005  1.309171e-02  1.430970e-07  1.115751e-07   0.000658  0.000658  0.000658    0.999826       -0.000695  0.999836     -0.000821         0.286254
12   0.001057 -3.282494e-07 -0.001056  8.390065e-07  6.550549e-07  5.107571e-07   0.001519  0.001519  0.001519    1.004251       -0.026239  1.003628     -0.053961         0.660339
13  -0.000686  6.110686e-04  0.000686 -6.106326e-04  5.592221e-07  4.360346e-07   0.001321  0.001321  0.001321    1.003489       -0.097476  1.003628     -0.053961         0.574325
14   0.000686  3.797809e-11 -0.000685  3.282645e-07  4.210537e-07  3.283025e-07   0.000985  0.000985  0.000985    1.004868        0.001216  1.004251     -0.026239         0.428148
15   0.003389  2.079074e-04 -0.003375 -1.969751e-04  1.402085e-05  1.093229e-05   0.004900  0.004900  0.004900    1.000198       -0.076647  0.995882     -0.247033         2.130283
16   0.001057  4.438035e-13 -0.001056  7.578878e-07  9.720049e-07  7.578883e-07   0.001525  0.001525  0.001525    1.000487       -0.048533  0.999567     -0.089647         0.663088
--------------------------------------------------

TRAFO:
    p_hv_mw  q_hv_mvar   p_lv_mw  q_lv_mvar    pl_mw  ql_mvar   i_hv_ka   i_lv_ka  vm_hv_pu  va_hv_degree  vm_lv_pu  va_lv_degree  loading_percent
0 -0.003903  -0.004069  0.003913   0.005069  0.00001    0.001  0.000217  0.009243  0.999949     -0.000070  0.999949     -0.000073         0.064040
1  0.004147  -0.007736 -0.004137   0.008736  0.00001    0.001  0.000338  0.013953  0.999859     -0.001001  0.999859     -0.001005         0.096668
2  0.033143   0.028512 -0.033133  -0.024512  0.00001    0.004  0.000361  0.001586  1.000000      0.000000  1.000000      0.000004         0.109300
3  0.035782   0.025379 -0.035772  -0.021379  0.00001    0.004  0.000362  0.001604  1.000000      0.000000  1.000000      0.000003         0.109670
--------------------------------------------------
